input/raw/IEEE118busPsse33.RAW
 0,    100.00, 33, 0, 0, 60.00 
 04/19/2014 UW ARCHIVE.      
 IEEE 118-BUS TEST SYSTEM.
    1,'Bus 1       ',   1.0000,1,   1,   1,   1,0.95692599, -12.975385, 1.10000, 0.90000, 1.10000, 0.90000
    2,'Bus 2       ',   1.0000,1,   1,   1,   1,0.97644597, -12.079451, 1.10000, 0.90000, 1.10000, 0.90000
    3,'Bus 3       ',   1.0000,1,   1,   1,   1,0.96760303, -12.236211, 1.10000, 0.90000, 1.10000, 0.90000
    4,'Bus 4       ',   1.0000,2,   1,   1,   1,0.99807900,  -8.933050, 1.10000, 0.90000, 1.10000, 0.90000
    5,'Bus 5       ',   1.0000,2,   1,   1,   1,0.99561900,  -8.940727, 1.10000, 0.90000, 1.10000, 0.90000
    6,'Bus 6       ',   1.0000,2,   1,   1,   1,0.99522698,  -9.573445, 1.10000, 0.90000, 1.10000, 0.90000
    7,'Bus 7       ',   1.0000,1,   1,   1,   1,0.99564701, -10.221805, 1.10000, 0.90000, 1.10000, 0.90000
    8,'Bus 8       ',   1.0000,1,   1,   1,   1,1.00003004,  -7.196987, 1.10000, 0.90000, 1.10000, 0.90000
    9,'Bus 9       ',   1.0000,1,   1,   1,   1,0.99804401,  -3.696263, 1.10000, 0.90000, 1.10000, 0.90000
   10,'Bus 10      ',   1.0000,3,   1,   1,   1,1.00000000,   0.000000, 1.10000, 0.90000, 1.10000, 0.90000
   11,'Bus 11      ',   1.0000,1,   1,   1,   1,0.99261999, -10.918122, 1.10000, 0.90000, 1.10000, 0.90000
   12,'Bus 12      ',   1.0000,2,   1,   1,   1,0.99826902, -10.924767, 1.10000, 0.90000, 1.10000, 0.90000
   13,'Bus 13      ',   1.0000,1,   1,   1,   1,0.99654001, -12.457374, 1.10000, 0.90000, 1.10000, 0.90000
   14,'Bus 14      ',   1.0000,1,   1,   1,   1,1.01594996, -12.012702, 1.10000, 0.90000, 1.10000, 0.90000
   15,'Bus 15      ',   1.0000,2,   1,   1,   1,1.07561004, -13.400692, 1.10000, 0.90000, 1.10000, 0.90000
   16,'Bus 16      ',   1.0000,1,   1,   1,   1,1.00924003, -11.535484, 1.10000, 0.90000, 1.10000, 0.90000
   17,'Bus 17      ',   1.0000,2,   1,   1,   1,1.06231999, -10.607979, 1.10000, 0.90000, 1.10000, 0.90000
   18,'Bus 18      ',   1.0000,1,   1,   1,   1,1.04645002, -12.745171, 1.10000, 0.90000, 1.10000, 0.90000
   19,'Bus 19      ',   1.0000,2,   1,   1,   1,1.05488002, -13.512533, 1.10000, 0.90000, 1.10000, 0.90000
   20,'Bus 20      ',   1.0000,1,   1,   1,   1,1.01751006, -12.963984, 1.10000, 0.90000, 1.10000, 0.90000
   21,'Bus 21      ',   1.0000,1,   1,   1,   1,0.99641198, -11.709663, 1.10000, 0.90000, 1.10000, 0.90000
   22,'Bus 22      ',   1.0000,1,   1,   1,   1,0.98401600,  -9.531619, 1.10000, 0.90000, 1.10000, 0.90000
   23,'Bus 23      ',   1.0000,1,   1,   1,   1,0.97940302,  -5.052833, 1.10000, 0.90000, 1.10000, 0.90000
   24,'Bus 24      ',   1.0000,1,   1,   1,   1,0.96876699,  -7.752469, 1.10000, 0.90000, 1.10000, 0.90000
   25,'Bus 25      ',   1.0000,2,   1,   1,   1,0.98560297,   1.944145, 1.10000, 0.90000, 1.10000, 0.90000
   26,'Bus 26      ',   1.0000,2,   1,   1,   1,1.00678003,   1.288314, 1.10000, 0.90000, 1.10000, 0.90000
   27,'Bus 27      ',   1.0000,1,   1,   1,   1,0.99405599,  -4.880475, 1.10000, 0.90000, 1.10000, 0.90000
   28,'Bus 28      ',   1.0000,1,   1,   1,   1,1.01662004,  -3.708668, 1.10000, 0.90000, 1.10000, 0.90000
   29,'Bus 29      ',   1.0000,1,   1,   1,   1,1.05353999,  -1.748812, 1.10000, 0.90000, 1.10000, 0.90000
   30,'Bus 30      ',   1.0000,1,   1,   1,   1,1.02160001,  -8.894948, 1.10000, 0.90000, 1.10000, 0.90000
   31,'Bus 31      ',   1.0000,2,   1,   1,   1,1.07167995,  -0.753182, 1.10000, 0.90000, 1.10000, 0.90000
   32,'Bus 32      ',   1.0000,1,   1,   1,   1,1.00307000,  -5.343506, 1.10000, 0.90000, 1.10000, 0.90000
   33,'Bus 33      ',   1.0000,1,   1,   1,   1,1.03506994, -16.366897, 1.10000, 0.90000, 1.10000, 0.90000
   34,'Bus 34      ',   1.0000,1,   1,   1,   1,1.00680006, -18.650077, 1.10000, 0.90000, 1.10000, 0.90000
   35,'Bus 35      ',   1.0000,1,   1,   1,   1,1.00198996, -19.142478, 1.10000, 0.90000, 1.10000, 0.90000
   36,'Bus 36      ',   1.0000,1,   1,   1,   1,1.00128996, -19.116924, 1.10000, 0.90000, 1.10000, 0.90000
   37,'Bus 37      ',   1.0000,1,   1,   1,   1,1.01357996, -18.396372, 1.10000, 0.90000, 1.10000, 0.90000
   38,'Bus 38      ',   1.0000,1,   1,   1,   1,1.01736999, -14.213778, 1.10000, 0.90000, 1.10000, 0.90000
   39,'Bus 39      ',   1.0000,1,   1,   1,   1,1.02348006, -23.217300, 1.10000, 0.90000, 1.10000, 0.90000
   40,'Bus 40      ',   1.0000,2,   1,   1,   1,1.04305995, -25.121700, 1.10000, 0.90000, 1.10000, 0.90000
   41,'Bus 41      ',   1.0000,1,   1,   1,   1,1.02022004, -25.654322, 1.10000, 0.90000, 1.10000, 0.90000
   42,'Bus 42      ',   1.0000,1,   1,   1,   1,0.98506999, -24.585927, 1.10000, 0.90000, 1.10000, 0.90000
   43,'Bus 43      ',   1.0000,1,   1,   1,   1,0.96069098, -19.081515, 1.10000, 0.90000, 1.10000, 0.90000
   44,'Bus 44      ',   1.0000,1,   1,   1,   1,0.92314303, -17.181530, 1.10000, 0.90000, 1.10000, 0.90000
   45,'Bus 45      ',   1.0000,1,   1,   1,   1,0.92159802, -15.603258, 1.10000, 0.90000, 1.10000, 0.90000
   46,'Bus 46      ',   1.0000,2,   1,   1,   1,0.94084901, -10.099077, 1.10000, 0.90000, 1.10000, 0.90000
   47,'Bus 47      ',   1.0000,1,   1,   1,   1,0.97503000, -13.669466, 1.10000, 0.90000, 1.10000, 0.90000
   48,'Bus 48      ',   1.0000,1,   1,   1,   1,0.96397603, -13.922829, 1.10000, 0.90000, 1.10000, 0.90000
   49,'Bus 49      ',   1.0000,2,   1,   1,   1,0.97974598, -14.433334, 1.10000, 0.90000, 1.10000, 0.90000
   50,'Bus 50      ',   1.0000,1,   1,   1,   1,0.97137803, -16.952919, 1.10000, 0.90000, 1.10000, 0.90000
   51,'Bus 51      ',   1.0000,1,   1,   1,   1,0.95736498, -20.055833, 1.10000, 0.90000, 1.10000, 0.90000
   52,'Bus 52      ',   1.0000,1,   1,   1,   1,0.95222902, -21.123825, 1.10000, 0.90000, 1.10000, 0.90000
   53,'Bus 53      ',   1.0000,1,   1,   1,   1,0.95960999, -22.350988, 1.10000, 0.90000, 1.10000, 0.90000
   54,'Bus 54      ',   1.0000,2,   1,   1,   1,0.98605198, -21.694663, 1.10000, 0.90000, 1.10000, 0.90000
   55,'Bus 55      ',   1.0000,1,   1,   1,   1,0.98349500, -22.139969, 1.10000, 0.90000, 1.10000, 0.90000
   56,'Bus 56      ',   1.0000,1,   1,   1,   1,0.98396498, -21.887637, 1.10000, 0.90000, 1.10000, 0.90000
   57,'Bus 57      ',   1.0000,1,   1,   1,   1,0.97363102, -20.204857, 1.10000, 0.90000, 1.10000, 0.90000
   58,'Bus 58      ',   1.0000,1,   1,   1,   1,0.96548599, -21.125717, 1.10000, 0.90000, 1.10000, 0.90000
   59,'Bus 59      ',   1.0000,2,   1,   1,   1,1.05519998, -19.775884, 1.10000, 0.90000, 1.10000, 0.90000
   60,'Bus 60      ',   1.0000,1,   1,   1,   1,1.03601003, -18.423817, 1.10000, 0.90000, 1.10000, 0.90000
   61,'Bus 61      ',   1.0000,1,   1,   1,   1,1.03866994, -17.880365, 1.10000, 0.90000, 1.10000, 0.90000
   62,'Bus 62      ',   1.0000,1,   1,   1,   1,1.02779996, -17.830520, 1.10000, 0.90000, 1.10000, 0.90000
   63,'Bus 63      ',   1.0000,1,   1,   1,   1,1.04624999, -17.602139, 1.10000, 0.90000, 1.10000, 0.90000
   64,'Bus 64      ',   1.0000,1,   1,   1,   1,1.04400003, -16.443902, 1.10000, 0.90000, 1.10000, 0.90000
   65,'Bus 65      ',   1.0000,2,   1,   1,   1,1.05176997, -13.134094, 1.10000, 0.90000, 1.10000, 0.90000
   66,'Bus 66      ',   1.0000,2,   1,   1,   1,1.02581000, -11.365314, 1.10000, 0.90000, 1.10000, 0.90000
   67,'Bus 67      ',   1.0000,1,   1,   1,   1,1.01796997, -15.161049, 1.10000, 0.90000, 1.10000, 0.90000
   68,'Bus 68      ',   1.0000,1,   1,   1,   1,1.05132997, -14.173212, 1.10000, 0.90000, 1.10000, 0.90000
   69,'Bus 69      ',   1.0000,2,   1,   1,   1,1.06244004, -12.255980, 1.10000, 0.90000, 1.10000, 0.90000
   70,'Bus 70      ',   1.0000,1,   1,   1,   1,0.97575903, -16.678012, 1.10000, 0.90000, 1.10000, 0.90000
   71,'Bus 71      ',   1.0000,1,   1,   1,   1,0.97331899, -16.158110, 1.10000, 0.90000, 1.10000, 0.90000
   72,'Bus 72      ',   1.0000,1,   1,   1,   1,0.96552700, -12.834895, 1.10000, 0.90000, 1.10000, 0.90000
   73,'Bus 73      ',   1.0000,1,   1,   1,   1,0.97278100, -16.322952, 1.10000, 0.90000, 1.10000, 0.90000
   74,'Bus 74      ',   1.0000,1,   1,   1,   1,0.94981498, -19.573975, 1.10000, 0.90000, 1.10000, 0.90000
   75,'Bus 75      ',   1.0000,1,   1,   1,   1,0.96264201, -18.952486, 1.10000, 0.90000, 1.10000, 0.90000
   76,'Bus 76      ',   1.0000,1,   1,   1,   1,0.93408602, -21.664240, 1.10000, 0.90000, 1.10000, 0.90000
   77,'Bus 77      ',   1.0000,1,   1,   1,   1,1.00293005, -19.025938, 1.10000, 0.90000, 1.10000, 0.90000
   78,'Bus 78      ',   1.0000,1,   1,   1,   1,0.99943900, -19.308695, 1.10000, 0.90000, 1.10000, 0.90000
   79,'Bus 79      ',   1.0000,1,   1,   1,   1,1.00253999, -19.268471, 1.10000, 0.90000, 1.10000, 0.90000
   80,'Bus 80      ',   1.0000,2,   1,   1,   1,1.04031003, -17.918523, 1.10000, 0.90000, 1.10000, 0.90000
   81,'Bus 81      ',   1.0000,1,   1,   1,   1,1.04558003, -15.476292, 1.10000, 0.90000, 1.10000, 0.90000
   82,'Bus 82      ',   1.0000,1,   1,   1,   1,0.98572803, -22.304176, 1.10000, 0.90000, 1.10000, 0.90000
   83,'Bus 83      ',   1.0000,1,   1,   1,   1,0.98969799, -22.988863, 1.10000, 0.90000, 1.10000, 0.90000
   84,'Bus 84      ',   1.0000,1,   1,   1,   1,1.00195003, -23.633097, 1.10000, 0.90000, 1.10000, 0.90000
   85,'Bus 85      ',   1.0000,1,   1,   1,   1,1.01573002, -23.659108, 1.10000, 0.90000, 1.10000, 0.90000
   86,'Bus 86      ',   1.0000,1,   1,   1,   1,1.03438997, -21.144910, 1.10000, 0.90000, 1.10000, 0.90000
   87,'Bus 87      ',   1.0000,2,   1,   1,   1,1.08792996, -15.018269, 1.10000, 0.90000, 1.10000, 0.90000
   88,'Bus 88      ',   1.0000,1,   1,   1,   1,1.03492999, -24.647574, 1.10000, 0.90000, 1.10000, 0.90000
   89,'Bus 89      ',   1.0000,2,   1,   1,   1,1.06193995, -23.597515, 1.10000, 0.90000, 1.10000, 0.90000
   90,'Bus 90      ',   1.0000,2,   1,   1,   1,1.04446006, -25.495956, 1.10000, 0.90000, 1.10000, 0.90000
   91,'Bus 91      ',   1.0000,1,   1,   1,   1,1.03772998, -25.127428, 1.10000, 0.90000, 1.10000, 0.90000
   92,'Bus 92      ',   1.0000,1,   1,   1,   1,1.03151000, -23.878553, 1.10000, 0.90000, 1.10000, 0.90000
   93,'Bus 93      ',   1.0000,1,   1,   1,   1,1.01163006, -23.229562, 1.10000, 0.90000, 1.10000, 0.90000
   94,'Bus 94      ',   1.0000,1,   1,   1,   1,1.00239003, -22.244589, 1.10000, 0.90000, 1.10000, 0.90000
   95,'Bus 95      ',   1.0000,1,   1,   1,   1,0.98848301, -22.570773, 1.10000, 0.90000, 1.10000, 0.90000
   96,'Bus 96      ',   1.0000,1,   1,   1,   1,0.99535298, -21.948828, 1.10000, 0.90000, 1.10000, 0.90000
   97,'Bus 97      ',   1.0000,1,   1,   1,   1,1.01120996, -20.278540, 1.10000, 0.90000, 1.10000, 0.90000
   98,'Bus 98      ',   1.0000,1,   1,   1,   1,1.02346003, -19.804533, 1.10000, 0.90000, 1.10000, 0.90000
   99,'Bus 99      ',   1.0000,1,   1,   1,   1,1.02261996, -20.613548, 1.10000, 0.90000, 1.10000, 0.90000
  100,'Bus 100     ',   1.0000,2,   1,   1,   1,1.02356005, -19.824928, 1.10000, 0.90000, 1.10000, 0.90000
  101,'Bus 101     ',   1.0000,1,   1,   1,   1,1.01112998, -22.371673, 1.10000, 0.90000, 1.10000, 0.90000
  102,'Bus 102     ',   1.0000,1,   1,   1,   1,1.02314997, -23.471865, 1.10000, 0.90000, 1.10000, 0.90000
  103,'Bus 103     ',   1.0000,2,   1,   1,   1,1.02093995, -18.108290, 1.10000, 0.90000, 1.10000, 0.90000
  104,'Bus 104     ',   1.0000,1,   1,   1,   1,0.97384000, -21.312273, 1.10000, 0.90000, 1.10000, 0.90000
  105,'Bus 105     ',   1.0000,1,   1,   1,   1,0.96764201, -21.680340, 1.10000, 0.90000, 1.10000, 0.90000
  106,'Bus 106     ',   1.0000,1,   1,   1,   1,0.96002698, -22.845221, 1.10000, 0.90000, 1.10000, 0.90000
  107,'Bus 107     ',   1.0000,1,   1,   1,   1,0.93684900, -24.962820, 1.10000, 0.90000, 1.10000, 0.90000
  108,'Bus 108     ',   1.0000,1,   1,   1,   1,0.98593003, -20.371529, 1.10000, 0.90000, 1.10000, 0.90000
  109,'Bus 109     ',   1.0000,1,   1,   1,   1,0.99400699, -19.820632, 1.10000, 0.90000, 1.10000, 0.90000
  110,'Bus 110     ',   1.0000,1,   1,   1,   1,1.02049005, -18.115106, 1.10000, 0.90000, 1.10000, 0.90000
  111,'Bus 111     ',   1.0000,2,   1,   1,   1,1.07412004, -13.948956, 1.10000, 0.90000, 1.10000, 0.90000
  112,'Bus 112     ',   1.0000,1,   1,   1,   1,0.99443299, -20.391530, 1.10000, 0.90000, 1.10000, 0.90000
  113,'Bus 113     ',   1.0000,1,   1,   1,   1,1.05374002, -10.042984, 1.10000, 0.90000, 1.10000, 0.90000
  114,'Bus 114     ',   1.0000,1,   1,   1,   1,0.99380898,  -5.668047, 1.10000, 0.90000, 1.10000, 0.90000
  115,'Bus 115     ',   1.0000,1,   1,   1,   1,0.99273700,  -5.679415, 1.10000, 0.90000, 1.10000, 0.90000
  116,'Bus 116     ',   1.0000,1,   1,   1,   1,1.05100000, -14.383258, 1.10000, 0.90000, 1.10000, 0.90000
  117,'Bus 117     ',   1.0000,1,   1,   1,   1,0.97978699, -12.410963, 1.10000, 0.90000, 1.10000, 0.90000
  118,'Bus 118     ',   1.0000,1,   1,   1,   1,0.94218701, -20.670558, 1.10000, 0.90000, 1.10000, 0.90000
0 / END OF BUS DATA, BEGIN LOAD DATA
    1,'BL',1,   1,   1,    51.000,    27.000,     0.000,     0.000,     0.000,     0.000,   1,1, 0
    2,'BL',1,   1,   1,    20.000,     9.000,     0.000,     0.000,     0.000,     0.000,   1,1, 0
    3,'BL',1,   1,   1,    39.000,    10.000,     0.000,     0.000,     0.000,     0.000,   1,1, 0
    4,'BL',1,   1,   1,    39.000,    12.000,     0.000,     0.000,     0.000,     0.000,   1,1, 0
    6,'BL',1,   1,   1,    52.000,    22.000,     0.000,     0.000,     0.000,     0.000,   1,1, 0
    7,'BL',1,   1,   1,    19.000,     2.000,     0.000,     0.000,     0.000,     0.000,   1,1, 0
   11,'BL',1,   1,   1,    70.000,    23.000,     0.000,     0.000,     0.000,     0.000,   1,1, 0
   12,'BL',1,   1,   1,    47.000,    10.000,     0.000,     0.000,     0.000,     0.000,   1,1, 0
   13,'BL',1,   1,   1,    34.000,    16.000,     0.000,     0.000,     0.000,     0.000,   1,1, 0
   14,'BL',1,   1,   1,    14.000,     1.000,     0.000,     0.000,     0.000,     0.000,   1,1, 0
   15,'BL',1,   1,   1,    90.000,    30.000,     0.000,     0.000,     0.000,     0.000,   1,1, 0
   16,'BL',1,   1,   1,    25.000,    10.000,     0.000,     0.000,     0.000,     0.000,   1,1, 0
   17,'BL',1,   1,   1,    11.000,     3.000,     0.000,     0.000,     0.000,     0.000,   1,1, 0
   18,'BL',1,   1,   1,    60.000,    34.000,     0.000,     0.000,     0.000,     0.000,   1,1, 0
   19,'BL',1,   1,   1,    45.000,    25.000,     0.000,     0.000,     0.000,     0.000,   1,1, 0
   20,'BL',1,   1,   1,    18.000,     3.000,     0.000,     0.000,     0.000,     0.000,   1,1, 0
   21,'BL',1,   1,   1,    14.000,     8.000,     0.000,     0.000,     0.000,     0.000,   1,1, 0
   22,'BL',1,   1,   1,    10.000,     5.000,     0.000,     0.000,     0.000,     0.000,   1,1, 0
   23,'BL',1,   1,   1,     7.000,     3.000,     0.000,     0.000,     0.000,     0.000,   1,1, 0
   27,'BL',1,   1,   1,    71.000,    13.000,     0.000,     0.000,     0.000,     0.000,   1,1, 0
   28,'BL',1,   1,   1,    17.000,     7.000,     0.000,     0.000,     0.000,     0.000,   1,1, 0
   29,'BL',1,   1,   1,    24.000,     4.000,     0.000,     0.000,     0.000,     0.000,   1,1, 0
   31,'BL',1,   1,   1,    43.000,    27.000,     0.000,     0.000,     0.000,     0.000,   1,1, 0
   32,'BL',1,   1,   1,    59.000,    23.000,     0.000,     0.000,     0.000,     0.000,   1,1, 0
   33,'BL',1,   1,   1,    23.000,     9.000,     0.000,     0.000,     0.000,     0.000,   1,1, 0
   34,'BL',1,   1,   1,    59.000,    26.000,     0.000,     0.000,     0.000,     0.000,   1,1, 0
   35,'BL',1,   1,   1,    33.000,     9.000,     0.000,     0.000,     0.000,     0.000,   1,1, 0
   36,'BL',1,   1,   1,    31.000,    17.000,     0.000,     0.000,     0.000,     0.000,   1,1, 0
   39,'BL',1,   1,   1,    27.000,    11.000,     0.000,     0.000,     0.000,     0.000,   1,1, 0
   40,'BL',1,   1,   1,    66.000,    23.000,     0.000,     0.000,     0.000,     0.000,   1,1, 0
   41,'BL',1,   1,   1,    37.000,    10.000,     0.000,     0.000,     0.000,     0.000,   1,1, 0
   42,'BL',1,   1,   1,    96.000,    23.000,     0.000,     0.000,     0.000,     0.000,   1,1, 0
   43,'BL',1,   1,   1,    18.000,     7.000,     0.000,     0.000,     0.000,     0.000,   1,1, 0
   44,'BL',1,   1,   1,    16.000,     8.000,     0.000,     0.000,     0.000,     0.000,   1,1, 0
   45,'BL',1,   1,   1,    53.000,    22.000,     0.000,     0.000,     0.000,     0.000,   1,1, 0
   46,'BL',1,   1,   1,    28.000,    10.000,     0.000,     0.000,     0.000,     0.000,   1,1, 0
   48,'BL',1,   1,   1,    20.000,    11.000,     0.000,     0.000,     0.000,     0.000,   1,1, 0
   49,'BL',1,   1,   1,    87.000,    30.000,     0.000,     0.000,     0.000,     0.000,   1,1, 0
   50,'BL',1,   1,   1,    17.000,     4.000,     0.000,     0.000,     0.000,     0.000,   1,1, 0
   51,'BL',1,   1,   1,    17.000,     8.000,     0.000,     0.000,     0.000,     0.000,   1,1, 0
   52,'BL',1,   1,   1,    18.000,     5.000,     0.000,     0.000,     0.000,     0.000,   1,1, 0
   53,'BL',1,   1,   1,    23.000,    11.000,     0.000,     0.000,     0.000,     0.000,   1,1, 0
   54,'BL',1,   1,   1,   113.000,    32.000,     0.000,     0.000,     0.000,     0.000,   1,1, 0
   55,'BL',1,   1,   1,    63.000,    22.000,     0.000,     0.000,     0.000,     0.000,   1,1, 0
   56,'BL',1,   1,   1,    84.000,    18.000,     0.000,     0.000,     0.000,     0.000,   1,1, 0
   57,'BL',1,   1,   1,    12.000,     3.000,     0.000,     0.000,     0.000,     0.000,   1,1, 0
   58,'BL',1,   1,   1,    12.000,     3.000,     0.000,     0.000,     0.000,     0.000,   1,1, 0
   59,'BL',1,   1,   1,   187.000,   113.000,     0.000,     0.000,     0.000,     0.000,   1,1, 0
   60,'BL',1,   1,   1,    78.000,     3.000,     0.000,     0.000,     0.000,     0.000,   1,1, 0
   62,'BL',1,   1,   1,    77.000,    14.000,     0.000,     0.000,     0.000,     0.000,   1,1, 0
   66,'BL',1,   1,   1,    39.000,    18.000,     0.000,     0.000,     0.000,     0.000,   1,1, 0
   67,'BL',1,   1,   1,    28.000,     7.000,     0.000,     0.000,     0.000,     0.000,   1,1, 0
   70,'BL',1,   1,   1,    66.000,    20.000,     0.000,     0.000,     0.000,     0.000,   1,1, 0
   74,'BL',1,   1,   1,    68.000,    27.000,     0.000,     0.000,     0.000,     0.000,   1,1, 0
   75,'BL',1,   1,   1,    47.000,    11.000,     0.000,     0.000,     0.000,     0.000,   1,1, 0
   76,'BL',1,   1,   1,    68.000,    36.000,     0.000,     0.000,     0.000,     0.000,   1,1, 0
   77,'BL',1,   1,   1,    61.000,    28.000,     0.000,     0.000,     0.000,     0.000,   1,1, 0
   78,'BL',1,   1,   1,    50.000,    26.000,     0.000,     0.000,     0.000,     0.000,   1,1, 0
   79,'BL',1,   1,   1,    39.000,    32.000,     0.000,     0.000,     0.000,     0.000,   1,1, 0
   80,'BL',1,   1,   1,   100.000,    26.000,     0.000,     0.000,     0.000,     0.000,   1,1, 0
   82,'BL',1,   1,   1,    54.000,    27.000,     0.000,     0.000,     0.000,     0.000,   1,1, 0
   83,'BL',1,   1,   1,    20.000,    10.000,     0.000,     0.000,     0.000,     0.000,   1,1, 0
   84,'BL',1,   1,   1,    11.000,     7.000,     0.000,     0.000,     0.000,     0.000,   1,1, 0
   85,'BL',1,   1,   1,    24.000,    15.000,     0.000,     0.000,     0.000,     0.000,   1,1, 0
   86,'BL',1,   1,   1,    21.000,    10.000,     0.000,     0.000,     0.000,     0.000,   1,1, 0
   88,'BL',1,   1,   1,    48.000,    10.000,     0.000,     0.000,     0.000,     0.000,   1,1, 0
   90,'BL',1,   1,   1,   150.000,    42.000,     0.000,     0.000,     0.000,     0.000,   1,1, 0
   92,'BL',1,   1,   1,    65.000,    10.000,     0.000,     0.000,     0.000,     0.000,   1,1, 0
   93,'BL',1,   1,   1,    12.000,     7.000,     0.000,     0.000,     0.000,     0.000,   1,1, 0
   94,'BL',1,   1,   1,    30.000,    16.000,     0.000,     0.000,     0.000,     0.000,   1,1, 0
   95,'BL',1,   1,   1,    42.000,    31.000,     0.000,     0.000,     0.000,     0.000,   1,1, 0
   96,'BL',1,   1,   1,    38.000,    15.000,     0.000,     0.000,     0.000,     0.000,   1,1, 0
   97,'BL',1,   1,   1,    15.000,     9.000,     0.000,     0.000,     0.000,     0.000,   1,1, 0
   98,'BL',1,   1,   1,    34.000,     8.000,     0.000,     0.000,     0.000,     0.000,   1,1, 0
  100,'BL',1,   1,   1,    37.000,    48.000,     0.000,     0.000,     0.000,     0.000,   1,1, 0
  101,'BL',1,   1,   1,    22.000,    15.000,     0.000,     0.000,     0.000,     0.000,   1,1, 0
  102,'BL',1,   1,   1,     5.000,     3.000,     0.000,     0.000,     0.000,     0.000,   1,1, 0
  104,'BL',1,   1,   1,    38.000,    25.000,     0.000,     0.000,     0.000,     0.000,   1,1, 0
  105,'BL',1,   1,   1,    31.000,    26.000,     0.000,     0.000,     0.000,     0.000,   1,1, 0
  106,'BL',1,   1,   1,    43.000,    16.000,     0.000,     0.000,     0.000,     0.000,   1,1, 0
  107,'BL',1,   1,   1,    50.000,    12.000,     0.000,     0.000,     0.000,     0.000,   1,1, 0
  108,'BL',1,   1,   1,     2.000,     1.000,     0.000,     0.000,     0.000,     0.000,   1,1, 0
  109,'BL',1,   1,   1,     8.000,     3.000,     0.000,     0.000,     0.000,     0.000,   1,1, 0
  112,'BL',1,   1,   1,    68.000,    13.000,     0.000,     0.000,     0.000,     0.000,   1,1, 0
  114,'BL',1,   1,   1,     8.000,     3.000,     0.000,     0.000,     0.000,     0.000,   1,1, 0
  115,'BL',1,   1,   1,    22.000,     7.000,     0.000,     0.000,     0.000,     0.000,   1,1, 0
  117,'BL',1,   1,   1,    20.000,     8.000,     0.000,     0.000,     0.000,     0.000,   1,1, 0
  118,'BL',1,   1,   1,    33.000,    15.000,     0.000,     0.000,     0.000,     0.000,   1,1, 0
0 / END OF LOAD DATA, BEGIN FIXED SHUNT DATA
0 / END OF FIXED SHUNT DATA, BEGIN GENERATOR DATA
    4,'1 ',    95.167,    35.159,    60.000,     0.000,1.00000,    0,   100.000,   0.00000,   0.00001,   0.00000,   0.00000,1.00000,1,  100.0,   100.000,    25.000,   1,1.0000,   0,1.0000,   0,1.0000,   0,1.0000,0, 1.0000
    5,'1 ',     0.000,   -40.869,   200.000,   -50.000,1.00000,    0,   100.000,   0.00000,   0.00001,   0.00000,   0.00000,1.00000,1,  100.0,     0.000,     0.000,   1,1.0000,   0,1.0000,   0,1.0000,   0,1.0000,0, 1.0000
    6,'1 ',    83.596,    12.709,    60.000,     0.000,1.00000,    0,   100.000,   0.00000,   0.00001,   0.00000,   0.00000,1.00000,1,  100.0,   100.000,    25.000,   1,1.0000,   0,1.0000,   0,1.0000,   0,1.0000,0, 1.0000
   10,'1 ',   169.035,     5.288,   200.000,   -50.000,1.00000,    0,   100.000,   0.00000,   0.00001,   0.00000,   0.00000,1.00000,1,  100.0,   400.000,   100.000,   1,1.0000,   0,1.0000,   0,1.0000,   0,1.0000,0, 1.0000
   10,'2 ',    92.504,    -8.753,    80.000,   -50.000,1.00000,    0,   100.000,   0.00000,   0.00001,   0.00000,   0.00000,1.00000,1,  100.0,   155.000,    54.250,   1,1.0000,   0,1.0000,   0,1.0000,   0,1.0000,0, 1.0000
   12,'1 ',   126.962,    53.282,    80.000,     0.000,1.00000,    0,   100.000,   0.00000,   0.00001,   0.00000,   0.00000,1.00000,1,  100.0,   197.000,    68.950,   1,1.0000,   0,1.0000,   0,1.0000,   0,1.0000,0, 1.0000
   15,'1 ',    56.492,    49.346,    60.000,     0.000,1.00000,    0,   100.000,   0.00000,   0.00001,   0.00000,   0.00000,1.00000,1,  100.0,   100.000,    25.000,   1,1.0000,   0,1.0000,   0,1.0000,   0,1.0000,0, 1.0000
   15,'2 ',     0.000,   187.150,   200.000,   -50.000,1.00000,    0,   100.000,   0.00000,   0.00001,   0.00000,   0.00000,1.00000,1,  100.0,     0.000,     0.000,   1,1.0000,   0,1.0000,   0,1.0000,   0,1.0000,0, 1.0000
   17,'1 ',     0.000,   171.724,   200.000,   -50.000,1.00000,    0,   100.000,   0.00000,   0.00001,   0.00000,   0.00000,1.00000,1,  100.0,     0.000,     0.000,   1,1.0000,   0,1.0000,   0,1.0000,   0,1.0000,0, 1.0000
   19,'1 ',    39.794,    43.272,    60.000,     0.000,1.00000,    0,   100.000,   0.00000,   0.00001,   0.00000,   0.00000,1.00000,1,  100.0,   100.000,    25.000,   1,1.0000,   0,1.0000,   0,1.0000,   0,1.0000,0, 1.0000
   25,'1 ',   117.888,   -41.413,    80.000,   -50.000,1.00000,    0,   100.000,   0.00000,   0.00001,   0.00000,   0.00000,1.00000,1,  100.0,   155.000,    54.250,   1,1.0000,   0,1.0000,   0,1.0000,   0,1.0000,0, 1.0000
   25,'2 ',   117.888,   -41.413,    80.000,   -50.000,1.00000,    0,   100.000,   0.00000,   0.00001,   0.00000,   0.00000,1.00000,1,  100.0,   155.000,    54.250,   1,1.0000,   0,1.0000,   0,1.0000,   0,1.0000,0, 1.0000
   25,'3 ',     7.329,     2.527,     6.000,     0.000,1.00000,    0,   100.000,   0.00000,   0.00001,   0.00000,   0.00000,1.00000,1,  100.0,    12.000,     2.400,   1,1.0000,   0,1.0000,   0,1.0000,   0,1.0000,0, 1.0000
   26,'1 ',    81.148,    16.800,    80.000,     0.000,1.00000,    0,   100.000,   0.00000,   0.00001,   0.00000,   0.00000,1.00000,1,  100.0,   197.000,    68.950,   1,1.0000,   0,1.0000,   0,1.0000,   0,1.0000,0, 1.0000
   26,'2 ',    81.148,    16.800,    80.000,     0.000,1.00000,    0,   100.000,   0.00000,   0.00001,   0.00000,   0.00000,1.00000,1,  100.0,   197.000,    68.950,   1,1.0000,   0,1.0000,   0,1.0000,   0,1.0000,0, 1.0000
   26,'3 ',    17.740,     4.460,    10.000,     0.000,1.00000,    0,   100.000,   0.00000,   0.00001,   0.00000,   0.00000,1.00000,1,  100.0,    20.000,    15.800,   1,1.0000,   0,1.0000,   0,1.0000,   0,1.0000,0, 1.0000
   31,'1 ',   334.654,    91.571,   150.000,   -25.000,1.00000,    0,   100.000,   0.00000,   0.00001,   0.00000,   0.00000,1.00000,1,  100.0,   350.000,   140.000,   1,1.0000,   0,1.0000,   0,1.0000,   0,1.0000,0, 1.0000
   40,'1 ',     0.000,   185.568,   200.000,   -50.000,1.00000,    0,   100.000,   0.00000,   0.00001,   0.00000,   0.00000,1.00000,1,  100.0,     0.000,     0.000,   1,1.0000,   0,1.0000,   0,1.0000,   0,1.0000,0, 1.0000
   46,'1 ',   149.613,   -44.679,    80.000,   -50.000,1.00000,    0,   100.000,   0.00000,   0.00001,   0.00000,   0.00000,1.00000,1,  100.0,   155.000,    54.250,   1,1.0000,   0,1.0000,   0,1.0000,   0,1.0000,0, 1.0000
   49,'1 ',    58.596,    -9.382,    30.000,   -25.000,1.00000,    0,   100.000,   0.00000,   0.00001,   0.00000,   0.00000,1.00000,1,  100.0,    76.000,    15.200,   1,1.0000,   0,1.0000,   0,1.0000,   0,1.0000,0, 1.0000
   49,'2 ',    58.596,    -9.382,    30.000,   -25.000,1.00000,    0,   100.000,   0.00000,   0.00001,   0.00000,   0.00000,1.00000,1,  100.0,    76.000,    15.200,   1,1.0000,   0,1.0000,   0,1.0000,   0,1.0000,0, 1.0000
   49,'3 ',    58.596,    -9.382,    30.000,   -25.000,1.00000,    0,   100.000,   0.00000,   0.00001,   0.00000,   0.00000,1.00000,1,  100.0,    76.000,    15.200,   1,1.0000,   0,1.0000,   0,1.0000,   0,1.0000,0, 1.0000
   49,'4 ',    58.596,    -9.382,    30.000,   -25.000,1.00000,    0,   100.000,   0.00000,   0.00001,   0.00000,   0.00000,1.00000,1,  100.0,    76.000,    15.200,   1,1.0000,   0,1.0000,   0,1.0000,   0,1.0000,0, 1.0000
   54,'1 ',    77.707,    68.038,    80.000,   -50.000,1.00000,    0,   100.000,   0.00000,   0.00001,   0.00000,   0.00000,1.00000,1,  100.0,   155.000,    54.250,   1,1.0000,   0,1.0000,   0,1.0000,   0,1.0000,0, 1.0000
   59,'1 ',   103.262,    70.437,    80.000,     0.000,1.00000,    0,   100.000,   0.00000,   0.00001,   0.00000,   0.00000,1.00000,1,  100.0,   197.000,    68.950,   1,1.0000,   0,1.0000,   0,1.0000,   0,1.0000,0, 1.0000
   59,'2 ',     6.987,     3.399,     6.000,     0.000,1.00000,    0,   100.000,   0.00000,   0.00001,   0.00000,   0.00000,1.00000,1,  100.0,    12.000,     2.400,   1,1.0000,   0,1.0000,   0,1.0000,   0,1.0000,0, 1.0000
   59,'3 ',     6.987,     3.399,     6.000,     0.000,1.00000,    0,   100.000,   0.00000,   0.00001,   0.00000,   0.00000,1.00000,1,  100.0,    12.000,     2.400,   1,1.0000,   0,1.0000,   0,1.0000,   0,1.0000,0, 1.0000
   59,'4 ',     6.987,     3.399,     6.000,     0.000,1.00000,    0,   100.000,   0.00000,   0.00001,   0.00000,   0.00000,1.00000,1,  100.0,    12.000,     2.400,   1,1.0000,   0,1.0000,   0,1.0000,   0,1.0000,0, 1.0000
   59,'5 ',     6.987,     3.399,     6.000,     0.000,1.00000,    0,   100.000,   0.00000,   0.00001,   0.00000,   0.00000,1.00000,1,  100.0,    12.000,     2.400,   1,1.0000,   0,1.0000,   0,1.0000,   0,1.0000,0, 1.0000
   59,'6 ',     6.987,     3.399,     6.000,     0.000,1.00000,    0,   100.000,   0.00000,   0.00001,   0.00000,   0.00000,1.00000,1,  100.0,    12.000,     2.400,   1,1.0000,   0,1.0000,   0,1.0000,   0,1.0000,0, 1.0000
   59,'7 ',     0.000,   189.426,   200.000,   -50.000,1.00000,    0,   100.000,   0.00000,   0.00001,   0.00000,   0.00000,1.00000,1,  100.0,     0.000,     0.000,   1,1.0000,   0,1.0000,   0,1.0000,   0,1.0000,0, 1.0000
   65,'1 ',   183.604,    87.491,   150.000,   -25.000,1.00000,    0,   100.000,   0.00000,   0.00001,   0.00000,   0.00000,1.00000,1,  100.0,   350.000,   140.000,   1,1.0000,   0,1.0000,   0,1.0000,   0,1.0000,0, 1.0000
   65,'2 ',    85.958,    29.976,    80.000,   -50.000,1.00000,    0,   100.000,   0.00000,   0.00001,   0.00000,   0.00000,1.00000,1,  100.0,   155.000,    54.250,   1,1.0000,   0,1.0000,   0,1.0000,   0,1.0000,0, 1.0000
   66,'1 ',    38.119,     1.334,    16.000,   -10.000,1.00000,    0,   100.000,   0.00000,   0.00001,   0.00000,   0.00000,1.00000,1,  100.0,    50.000,     0.000,   1,1.0000,   0,1.0000,   0,1.0000,   0,1.0000,0, 1.0000
   66,'10',    38.119,     1.334,    16.000,   -10.000,1.00000,    0,   100.000,   0.00000,   0.00001,   0.00000,   0.00000,1.00000,1,  100.0,    50.000,     0.000,   1,1.0000,   0,1.0000,   0,1.0000,   0,1.0000,0, 1.0000
   66,'2 ',    38.119,     1.334,    16.000,   -10.000,1.00000,    0,   100.000,   0.00000,   0.00001,   0.00000,   0.00000,1.00000,1,  100.0,    50.000,     0.000,   1,1.0000,   0,1.0000,   0,1.0000,   0,1.0000,0, 1.0000
   66,'3 ',    38.119,     1.334,    16.000,   -10.000,1.00000,    0,   100.000,   0.00000,   0.00001,   0.00000,   0.00000,1.00000,1,  100.0,    50.000,     0.000,   1,1.0000,   0,1.0000,   0,1.0000,   0,1.0000,0, 1.0000
   66,'4 ',    38.119,     1.334,    16.000,   -10.000,1.00000,    0,   100.000,   0.00000,   0.00001,   0.00000,   0.00000,1.00000,1,  100.0,    50.000,     0.000,   1,1.0000,   0,1.0000,   0,1.0000,   0,1.0000,0, 1.0000
   66,'5 ',    38.119,     1.334,    16.000,   -10.000,1.00000,    0,   100.000,   0.00000,   0.00001,   0.00000,   0.00000,1.00000,1,  100.0,    50.000,     0.000,   1,1.0000,   0,1.0000,   0,1.0000,   0,1.0000,0, 1.0000
   66,'6 ',    38.119,     1.334,    16.000,   -10.000,1.00000,    0,   100.000,   0.00000,   0.00001,   0.00000,   0.00000,1.00000,1,  100.0,    50.000,     0.000,   1,1.0000,   0,1.0000,   0,1.0000,   0,1.0000,0, 1.0000
   66,'7 ',    38.119,     1.334,    16.000,   -10.000,1.00000,    0,   100.000,   0.00000,   0.00001,   0.00000,   0.00000,1.00000,1,  100.0,    50.000,     0.000,   1,1.0000,   0,1.0000,   0,1.0000,   0,1.0000,0, 1.0000
   66,'8 ',    38.119,     1.334,    16.000,   -10.000,1.00000,    0,   100.000,   0.00000,   0.00001,   0.00000,   0.00000,1.00000,1,  100.0,    50.000,     0.000,   1,1.0000,   0,1.0000,   0,1.0000,   0,1.0000,0, 1.0000
   66,'9 ',    38.119,     1.334,    16.000,   -10.000,1.00000,    0,   100.000,   0.00000,   0.00001,   0.00000,   0.00000,1.00000,1,  100.0,    50.000,     0.000,   1,1.0000,   0,1.0000,   0,1.0000,   0,1.0000,0, 1.0000
   69,'1 ',   231.481,   111.833,   200.000,   -50.000,1.00000,    0,   100.000,   0.00000,   0.00001,   0.00000,   0.00000,1.00000,1,  100.0,   400.000,   100.000,   1,1.0000,   0,1.0000,   0,1.0000,   0,1.0000,0, 1.0000
   69,'2 ',   231.481,   111.833,   200.000,   -50.000,1.00000,    0,   100.000,   0.00000,   0.00001,   0.00000,   0.00000,1.00000,1,  100.0,   400.000,   100.000,   1,1.0000,   0,1.0000,   0,1.0000,   0,1.0000,0, 1.0000
   80,'1 ',   159.269,   132.779,   150.000,   -25.000,1.00000,    0,   100.000,   0.00000,   0.00001,   0.00000,   0.00000,1.00000,1,  100.0,   350.000,   140.000,   1,1.0000,   0,1.0000,   0,1.0000,   0,1.0000,0, 1.0000
   80,'2 ',    86.874,    65.012,    80.000,     0.000,1.00000,    0,   100.000,   0.00000,   0.00001,   0.00000,   0.00000,1.00000,1,  100.0,   197.000,    68.950,   1,1.0000,   0,1.0000,   0,1.0000,   0,1.0000,0, 1.0000
   80,'3 ',    17.593,     5.715,    10.000,     0.000,1.00000,    0,   100.000,   0.00000,   0.00001,   0.00000,   0.00000,1.00000,1,  100.0,    20.000,    15.800,   1,1.0000,   0,1.0000,   0,1.0000,   0,1.0000,0, 1.0000
   87,'1 ',    27.786,    12.735,    60.000,     0.000,1.00000,    0,   100.000,   0.00000,   0.00001,   0.00000,   0.00000,1.00000,1,  100.0,   100.000,    25.000,   1,1.0000,   0,1.0000,   0,1.0000,   0,1.0000,0, 1.0000
   87,'2 ',    27.786,    12.735,    60.000,     0.000,1.00000,    0,   100.000,   0.00000,   0.00001,   0.00000,   0.00000,1.00000,1,  100.0,   100.000,    25.000,   1,1.0000,   0,1.0000,   0,1.0000,   0,1.0000,0, 1.0000
   87,'3 ',     2.728,    -1.305,    16.000,   -10.000,1.00000,    0,   100.000,   0.00000,   0.00001,   0.00000,   0.00000,1.00000,1,  100.0,    50.000,     0.000,   1,1.0000,   0,1.0000,   0,1.0000,   0,1.0000,0, 1.0000
   87,'4 ',     2.728,    -1.305,    16.000,   -10.000,1.00000,    0,   100.000,   0.00000,   0.00001,   0.00000,   0.00000,1.00000,1,  100.0,    50.000,     0.000,   1,1.0000,   0,1.0000,   0,1.0000,   0,1.0000,0, 1.0000
   89,'1 ',    72.207,    77.012,    80.000,     0.000,1.00000,    0,   100.000,   0.00000,   0.00001,   0.00000,   0.00000,1.00000,1,  100.0,   197.000,    68.950,   1,1.0000,   0,1.0000,   0,1.0000,   0,1.0000,0, 1.0000
   89,'2 ',    57.487,    76.967,    80.000,   -50.000,1.00000,    0,   100.000,   0.00000,   0.00001,   0.00000,   0.00000,1.00000,1,  100.0,   155.000,    54.250,   1,1.0000,   0,1.0000,   0,1.0000,   0,1.0000,0, 1.0000
   90,'1 ',    17.055,     7.976,    10.000,     0.000,1.00000,    0,   100.000,   0.00000,   0.00001,   0.00000,   0.00000,1.00000,1,  100.0,    20.000,    15.800,   1,1.0000,   0,1.0000,   0,1.0000,   0,1.0000,0, 1.0000
   90,'2 ',    17.055,     7.976,    10.000,     0.000,1.00000,    0,   100.000,   0.00000,   0.00001,   0.00000,   0.00000,1.00000,1,  100.0,    20.000,    15.800,   1,1.0000,   0,1.0000,   0,1.0000,   0,1.0000,0, 1.0000
   90,'3 ',    17.055,     7.976,    10.000,     0.000,1.00000,    0,   100.000,   0.00000,   0.00001,   0.00000,   0.00000,1.00000,1,  100.0,    20.000,    15.800,   1,1.0000,   0,1.0000,   0,1.0000,   0,1.0000,0, 1.0000
   90,'4 ',    17.055,     7.976,    10.000,     0.000,1.00000,    0,   100.000,   0.00000,   0.00001,   0.00000,   0.00000,1.00000,1,  100.0,    20.000,    15.800,   1,1.0000,   0,1.0000,   0,1.0000,   0,1.0000,0, 1.0000
   90,'5 ',    17.055,     7.976,    10.000,     0.000,1.00000,    0,   100.000,   0.00000,   0.00001,   0.00000,   0.00000,1.00000,1,  100.0,    20.000,    15.800,   1,1.0000,   0,1.0000,   0,1.0000,   0,1.0000,0, 1.0000
  100,'1 ',   186.734,   120.797,   150.000,   -25.000,1.00000,    0,   100.000,   0.00000,   0.00001,   0.00000,   0.00000,1.00000,1,  100.0,   350.000,   140.000,   1,1.0000,   0,1.0000,   0,1.0000,   0,1.0000,0, 1.0000
  103,'1 ',    69.375,     0.208,    30.000,   -25.000,1.00000,    0,   100.000,   0.00000,   0.00001,   0.00000,   0.00000,1.00000,1,  100.0,    76.000,    15.200,   1,1.0000,   0,1.0000,   0,1.0000,   0,1.0000,0, 1.0000
  103,'2 ',    69.375,     0.208,    30.000,   -25.000,1.00000,    0,   100.000,   0.00000,   0.00001,   0.00000,   0.00000,1.00000,1,  100.0,    76.000,    15.200,   1,1.0000,   0,1.0000,   0,1.0000,   0,1.0000,0, 1.0000
  103,'3 ',     0.000,    34.718,   200.000,   -50.000,1.00000,    0,   100.000,   0.00000,   0.00001,   0.00000,   0.00000,1.00000,1,  100.0,     0.000,     0.000,   1,1.0000,   0,1.0000,   0,1.0000,   0,1.0000,0, 1.0000
  111,'1 ',    18.319,     6.856,    10.000,     0.000,1.00000,    0,   100.000,   0.00000,   0.00001,   0.00000,   0.00000,1.00000,1,  100.0,    20.000,    15.800,   1,1.0000,   0,1.0000,   0,1.0000,   0,1.0000,0, 1.0000
  111,'2 ',    18.319,     6.856,    10.000,     0.000,1.00000,    0,   100.000,   0.00000,   0.00001,   0.00000,   0.00000,1.00000,1,  100.0,    20.000,    15.800,   1,1.0000,   0,1.0000,   0,1.0000,   0,1.0000,0, 1.0000
  111,'3 ',    18.319,     6.856,    10.000,     0.000,1.00000,    0,   100.000,   0.00000,   0.00001,   0.00000,   0.00000,1.00000,1,  100.0,    20.000,    15.800,   1,1.0000,   0,1.0000,   0,1.0000,   0,1.0000,0, 1.0000
  111,'4 ',    18.319,     6.856,    10.000,     0.000,1.00000,    0,   100.000,   0.00000,   0.00001,   0.00000,   0.00000,1.00000,1,  100.0,    20.000,    15.800,   1,1.0000,   0,1.0000,   0,1.0000,   0,1.0000,0, 1.0000
  111,'5 ',    18.319,     6.856,    10.000,     0.000,1.00000,    0,   100.000,   0.00000,   0.00001,   0.00000,   0.00000,1.00000,1,  100.0,    20.000,    15.800,   1,1.0000,   0,1.0000,   0,1.0000,   0,1.0000,0, 1.0000
  111,'6 ',     9.048,     3.750,     6.000,     0.000,1.00000,    0,   100.000,   0.00000,   0.00001,   0.00000,   0.00000,1.00000,1,  100.0,    12.000,     2.400,   1,1.0000,   0,1.0000,   0,1.0000,   0,1.0000,0, 1.0000
  111,'7 ',     9.048,     3.750,     6.000,     0.000,1.00000,    0,   100.000,   0.00000,   0.00001,   0.00000,   0.00000,1.00000,1,  100.0,    12.000,     2.400,   1,1.0000,   0,1.0000,   0,1.0000,   0,1.0000,0, 1.0000
  111,'8 ',     9.048,     3.750,     6.000,     0.000,1.00000,    0,   100.000,   0.00000,   0.00001,   0.00000,   0.00000,1.00000,1,  100.0,    12.000,     2.400,   1,1.0000,   0,1.0000,   0,1.0000,   0,1.0000,0, 1.0000
0 / END OF GENERATOR DATA, BEGIN BRANCH DATA
     1,     2,'1 ',3.03000E-2,9.99000E-2,0.00000E-1, 220.00,   0.00,   0.00,  0.00000,  0.00000,  0.00000,  0.00000,1,1,   0.00,   1,1.0000,   0,1.0000,   0,1.0000,   0,1.0000
     1,     3,'1 ',1.29000E-2,4.24000E-2,0.00000E-1, 220.00,   0.00,   0.00,  0.00000,  0.00000,  0.00000,  0.00000,1,1,   0.00,   1,1.0000,   0,1.0000,   0,1.0000,   0,1.0000
     2,    12,'1 ',1.87000E-2,6.16000E-2,0.00000E-1,1100.00,   0.00,   0.00,  0.00000,  0.00000,  0.00000,  0.00000,1,1,   0.00,   1,1.0000,   0,1.0000,   0,1.0000,   0,1.0000
     3,     5,'1 ',2.41000E-2,1.08000E-1,0.00000E-1, 220.00,   0.00,   0.00,  0.00000,  0.00000,  0.00000,  0.00000,1,1,   0.00,   1,1.0000,   0,1.0000,   0,1.0000,   0,1.0000
     3,    12,'1 ',4.84000E-2,1.60000E-1,0.00000E-1, 220.00,   0.00,   0.00,  0.00000,  0.00000,  0.00000,  0.00000,1,1,   0.00,   1,1.0000,   0,1.0000,   0,1.0000,   0,1.0000
     4,     5,'1 ',1.76000E-3,7.98000E-3,0.00000E-1, 220.00,   0.00,   0.00,  0.00000,  0.00000,  0.00000,  0.00000,1,1,   0.00,   1,1.0000,   0,1.0000,   0,1.0000,   0,1.0000
     4,    11,'1 ',2.09000E-2,6.88000E-2,0.00000E-1, 220.00,   0.00,   0.00,  0.00000,  0.00000,  0.00000,  0.00000,1,1,   0.00,   1,1.0000,   0,1.0000,   0,1.0000,   0,1.0000
     5,     6,'1 ',1.19000E-2,5.40000E-2,0.00000E-1, 220.00,   0.00,   0.00,  0.00000,  0.00000,  0.00000,  0.00000,1,1,   0.00,   1,1.0000,   0,1.0000,   0,1.0000,   0,1.0000
     8,     5,'1 ',1.00000E-7,2.67000E-2,0.00000E-1, 220.00,   0.00,   0.00,  0.00000,  0.00000,  0.00000,  0.00000,1,1,   0.00,   1,1.0000,   0,1.0000,   0,1.0000,   0,1.0000
     5,    11,'1 ',2.03000E-2,6.82000E-2,0.00000E-1, 220.00,   0.00,   0.00,  0.00000,  0.00000,  0.00000,  0.00000,1,1,   0.00,   1,1.0000,   0,1.0000,   0,1.0000,   0,1.0000
     6,     7,'1 ',4.59000E-3,2.08000E-2,0.00000E-1, 440.00,   0.00,   0.00,  0.00000,  0.00000,  0.00000,  0.00000,1,1,   0.00,   1,1.0000,   0,1.0000,   0,1.0000,   0,1.0000
     7,    12,'1 ',8.62000E-3,3.40000E-2,0.00000E-1,1100.00,   0.00,   0.00,  0.00000,  0.00000,  0.00000,  0.00000,1,1,   0.00,   1,1.0000,   0,1.0000,   0,1.0000,   0,1.0000
     8,     9,'1 ',2.44000E-3,3.05000E-2,0.00000E-1, 220.00,   0.00,   0.00,  0.00000,  0.00000,  0.00000,  0.00000,1,1,   0.00,   1,1.0000,   0,1.0000,   0,1.0000,   0,1.0000
     8,    30,'1 ',4.31000E-3,5.04000E-2,0.00000E-1, 440.00,   0.00,   0.00,  0.00000,  0.00000,  0.00000,  0.00000,1,1,   0.00,   1,1.0000,   0,1.0000,   0,1.0000,   0,1.0000
     9,    10,'1 ',2.58000E-3,3.22000E-2,0.00000E-1, 220.00,   0.00,   0.00,  0.00000,  0.00000,  0.00000,  0.00000,1,1,   0.00,   1,1.0000,   0,1.0000,   0,1.0000,   0,1.0000
    11,    12,'1 ',5.95000E-3,1.96000E-2,0.00000E-1, 880.00,   0.00,   0.00,  0.00000,  0.00000,  0.00000,  0.00000,1,1,   0.00,   1,1.0000,   0,1.0000,   0,1.0000,   0,1.0000
    11,    13,'1 ',2.22500E-2,7.31000E-2,0.00000E-1, 220.00,   0.00,   0.00,  0.00000,  0.00000,  0.00000,  0.00000,1,1,   0.00,   1,1.0000,   0,1.0000,   0,1.0000,   0,1.0000
    12,    14,'1 ',2.15000E-2,7.07000E-2,0.00000E-1, 220.00,   0.00,   0.00,  0.00000,  0.00000,  0.00000,  0.00000,1,1,   0.00,   1,1.0000,   0,1.0000,   0,1.0000,   0,1.0000
    12,    16,'1 ',2.12000E-2,8.34000E-2,0.00000E-1, 220.00,   0.00,   0.00,  0.00000,  0.00000,  0.00000,  0.00000,1,1,   0.00,   1,1.0000,   0,1.0000,   0,1.0000,   0,1.0000
    12,   117,'1 ',3.29000E-2,1.40000E-1,0.00000E-1, 220.00,   0.00,   0.00,  0.00000,  0.00000,  0.00000,  0.00000,1,1,   0.00,   1,1.0000,   0,1.0000,   0,1.0000,   0,1.0000
    13,    15,'1 ',7.44000E-2,2.44400E-1,0.00000E-1, 220.00,   0.00,   0.00,  0.00000,  0.00000,  0.00000,  0.00000,1,1,   0.00,   1,1.0000,   0,1.0000,   0,1.0000,   0,1.0000
    14,    15,'1 ',5.95000E-2,1.95000E-1,0.00000E-1, 220.00,   0.00,   0.00,  0.00000,  0.00000,  0.00000,  0.00000,1,1,   0.00,   1,1.0000,   0,1.0000,   0,1.0000,   0,1.0000
    15,    17,'1 ',1.32000E-2,4.37000E-2,0.00000E-1, 220.00,   0.00,   0.00,  0.00000,  0.00000,  0.00000,  0.00000,1,1,   0.00,   1,1.0000,   0,1.0000,   0,1.0000,   0,1.0000
    15,    19,'1 ',1.20000E-2,3.94000E-2,0.00000E-1, 220.00,   0.00,   0.00,  0.00000,  0.00000,  0.00000,  0.00000,1,1,   0.00,   1,1.0000,   0,1.0000,   0,1.0000,   0,1.0000
    15,    33,'1 ',3.80000E-2,1.24400E-1,0.00000E-1, 220.00,   0.00,   0.00,  0.00000,  0.00000,  0.00000,  0.00000,1,1,   0.00,   1,1.0000,   0,1.0000,   0,1.0000,   0,1.0000
    16,    17,'1 ',4.54000E-2,1.80100E-1,0.00000E-1, 220.00,   0.00,   0.00,  0.00000,  0.00000,  0.00000,  0.00000,1,1,   0.00,   1,1.0000,   0,1.0000,   0,1.0000,   0,1.0000
    17,    18,'1 ',1.23000E-2,5.05000E-2,0.00000E-1, 440.00,   0.00,   0.00,  0.00000,  0.00000,  0.00000,  0.00000,1,1,   0.00,   1,1.0000,   0,1.0000,   0,1.0000,   0,1.0000
    30,    17,'1 ',1.00000E-7,3.88000E-2,0.00000E-1, 220.00,   0.00,   0.00,  0.00000,  0.00000,  0.00000,  0.00000,1,1,   0.00,   1,1.0000,   0,1.0000,   0,1.0000,   0,1.0000
    17,    31,'1 ',4.74000E-2,1.56300E-1,0.00000E-1, 220.00,   0.00,   0.00,  0.00000,  0.00000,  0.00000,  0.00000,1,1,   0.00,   1,1.0000,   0,1.0000,   0,1.0000,   0,1.0000
    17,   113,'1 ',9.13000E-3,3.01000E-2,0.00000E-1, 220.00,   0.00,   0.00,  0.00000,  0.00000,  0.00000,  0.00000,1,1,   0.00,   1,1.0000,   0,1.0000,   0,1.0000,   0,1.0000
    18,    19,'1 ',1.11900E-2,4.93000E-2,0.00000E-1, 220.00,   0.00,   0.00,  0.00000,  0.00000,  0.00000,  0.00000,1,1,   0.00,   1,1.0000,   0,1.0000,   0,1.0000,   0,1.0000
    19,    20,'1 ',2.52000E-2,1.17000E-1,0.00000E-1, 220.00,   0.00,   0.00,  0.00000,  0.00000,  0.00000,  0.00000,1,1,   0.00,   1,1.0000,   0,1.0000,   0,1.0000,   0,1.0000
    19,    34,'1 ',7.52000E-2,2.47000E-1,0.00000E-1, 220.00,   0.00,   0.00,  0.00000,  0.00000,  0.00000,  0.00000,1,1,   0.00,   1,1.0000,   0,1.0000,   0,1.0000,   0,1.0000
    20,    21,'1 ',1.83000E-2,8.49000E-2,0.00000E-1, 220.00,   0.00,   0.00,  0.00000,  0.00000,  0.00000,  0.00000,1,1,   0.00,   1,1.0000,   0,1.0000,   0,1.0000,   0,1.0000
    21,    22,'1 ',2.09000E-2,9.70000E-2,0.00000E-1, 220.00,   0.00,   0.00,  0.00000,  0.00000,  0.00000,  0.00000,1,1,   0.00,   1,1.0000,   0,1.0000,   0,1.0000,   0,1.0000
    22,    23,'1 ',3.42000E-2,1.59000E-1,0.00000E-1, 220.00,   0.00,   0.00,  0.00000,  0.00000,  0.00000,  0.00000,1,1,   0.00,   1,1.0000,   0,1.0000,   0,1.0000,   0,1.0000
    23,    24,'1 ',1.35000E-2,4.92000E-2,0.00000E-1, 220.00,   0.00,   0.00,  0.00000,  0.00000,  0.00000,  0.00000,1,1,   0.00,   1,1.0000,   0,1.0000,   0,1.0000,   0,1.0000
    23,    25,'1 ',1.56000E-2,8.00000E-2,0.00000E-1, 220.00,   0.00,   0.00,  0.00000,  0.00000,  0.00000,  0.00000,1,1,   0.00,   1,1.0000,   0,1.0000,   0,1.0000,   0,1.0000
    23,    32,'1 ',3.17000E-2,1.15300E-1,0.00000E-1, 440.00,   0.00,   0.00,  0.00000,  0.00000,  0.00000,  0.00000,1,1,   0.00,   1,1.0000,   0,1.0000,   0,1.0000,   0,1.0000
    24,    70,'1 ',2.21000E-3,4.11500E-1,0.00000E-1, 440.00,   0.00,   0.00,  0.00000,  0.00000,  0.00000,  0.00000,1,1,   0.00,   1,1.0000,   0,1.0000,   0,1.0000,   0,1.0000
    24,    72,'1 ',4.88000E-2,1.96000E-1,0.00000E-1, 440.00,   0.00,   0.00,  0.00000,  0.00000,  0.00000,  0.00000,1,1,   0.00,   1,1.0000,   0,1.0000,   0,1.0000,   0,1.0000
    26,    25,'1 ',1.00000E-7,3.82000E-2,0.00000E-1, 220.00,   0.00,   0.00,  0.00000,  0.00000,  0.00000,  0.00000,1,1,   0.00,   1,1.0000,   0,1.0000,   0,1.0000,   0,1.0000
    25,    27,'1 ',3.18000E-2,1.63000E-1,0.00000E-1, 220.00,   0.00,   0.00,  0.00000,  0.00000,  0.00000,  0.00000,1,1,   0.00,   1,1.0000,   0,1.0000,   0,1.0000,   0,1.0000
    26,    30,'1 ',7.99000E-3,8.60000E-2,0.00000E-1, 220.00,   0.00,   0.00,  0.00000,  0.00000,  0.00000,  0.00000,1,1,   0.00,   1,1.0000,   0,1.0000,   0,1.0000,   0,1.0000
    27,    28,'1 ',1.91300E-2,8.55000E-2,0.00000E-1, 220.00,   0.00,   0.00,  0.00000,  0.00000,  0.00000,  0.00000,1,1,   0.00,   1,1.0000,   0,1.0000,   0,1.0000,   0,1.0000
    27,    32,'1 ',2.29000E-2,7.55000E-2,0.00000E-1, 660.00,   0.00,   0.00,  0.00000,  0.00000,  0.00000,  0.00000,1,1,   0.00,   1,1.0000,   0,1.0000,   0,1.0000,   0,1.0000
    27,   115,'1 ',1.64000E-2,7.41000E-2,0.00000E-1, 220.00,   0.00,   0.00,  0.00000,  0.00000,  0.00000,  0.00000,1,1,   0.00,   1,1.0000,   0,1.0000,   0,1.0000,   0,1.0000
    28,    29,'1 ',2.37000E-2,9.43000E-2,0.00000E-1, 220.00,   0.00,   0.00,  0.00000,  0.00000,  0.00000,  0.00000,1,1,   0.00,   1,1.0000,   0,1.0000,   0,1.0000,   0,1.0000
    29,    31,'1 ',1.08000E-2,3.31000E-2,0.00000E-1, 220.00,   0.00,   0.00,  0.00000,  0.00000,  0.00000,  0.00000,1,1,   0.00,   1,1.0000,   0,1.0000,   0,1.0000,   0,1.0000
    30,    38,'1 ',4.64000E-3,5.40000E-2,0.00000E-1, 220.00,   0.00,   0.00,  0.00000,  0.00000,  0.00000,  0.00000,1,1,   0.00,   1,1.0000,   0,1.0000,   0,1.0000,   0,1.0000
    31,    32,'1 ',2.98000E-2,9.85000E-2,0.00000E-1, 220.00,   0.00,   0.00,  0.00000,  0.00000,  0.00000,  0.00000,1,1,   0.00,   1,1.0000,   0,1.0000,   0,1.0000,   0,1.0000
    32,   113,'1 ',6.15000E-2,2.03000E-1,0.00000E-1, 220.00,   0.00,   0.00,  0.00000,  0.00000,  0.00000,  0.00000,1,1,   0.00,   1,1.0000,   0,1.0000,   0,1.0000,   0,1.0000
    32,   114,'1 ',1.35000E-2,6.12000E-2,0.00000E-1, 220.00,   0.00,   0.00,  0.00000,  0.00000,  0.00000,  0.00000,1,1,   0.00,   1,1.0000,   0,1.0000,   0,1.0000,   0,1.0000
    33,    37,'1 ',4.15000E-2,1.42000E-1,0.00000E-1, 220.00,   0.00,   0.00,  0.00000,  0.00000,  0.00000,  0.00000,1,1,   0.00,   1,1.0000,   0,1.0000,   0,1.0000,   0,1.0000
    34,    36,'1 ',8.71000E-3,2.68000E-2,0.00000E-1, 220.00,   0.00,   0.00,  0.00000,  0.00000,  0.00000,  0.00000,1,1,   0.00,   1,1.0000,   0,1.0000,   0,1.0000,   0,1.0000
    34,    37,'1 ',2.56000E-3,9.40000E-3,0.00000E-1, 660.00,   0.00,   0.00,  0.00000,  0.00000,  0.00000,  0.00000,1,1,   0.00,   1,1.0000,   0,1.0000,   0,1.0000,   0,1.0000
    34,    43,'1 ',4.13000E-2,1.68100E-1,0.00000E-1, 220.00,   0.00,   0.00,  0.00000,  0.00000,  0.00000,  0.00000,1,1,   0.00,   1,1.0000,   0,1.0000,   0,1.0000,   0,1.0000
    35,    36,'1 ',2.24000E-3,1.02000E-2,0.00000E-1, 220.00,   0.00,   0.00,  0.00000,  0.00000,  0.00000,  0.00000,1,1,   0.00,   1,1.0000,   0,1.0000,   0,1.0000,   0,1.0000
    35,    37,'1 ',1.10000E-2,4.97000E-2,0.00000E-1, 220.00,   0.00,   0.00,  0.00000,  0.00000,  0.00000,  0.00000,1,1,   0.00,   1,1.0000,   0,1.0000,   0,1.0000,   0,1.0000
    38,    37,'1 ',1.00000E-7,3.75000E-2,0.00000E-1, 220.00,   0.00,   0.00,  0.00000,  0.00000,  0.00000,  0.00000,1,1,   0.00,   1,1.0000,   0,1.0000,   0,1.0000,   0,1.0000
    37,    39,'1 ',3.21000E-2,1.06000E-1,0.00000E-1, 220.00,   0.00,   0.00,  0.00000,  0.00000,  0.00000,  0.00000,1,1,   0.00,   1,1.0000,   0,1.0000,   0,1.0000,   0,1.0000
    37,    40,'1 ',5.93000E-2,1.68000E-1,0.00000E-1, 220.00,   0.00,   0.00,  0.00000,  0.00000,  0.00000,  0.00000,1,1,   0.00,   1,1.0000,   0,1.0000,   0,1.0000,   0,1.0000
    38,    65,'1 ',9.01000E-3,9.86000E-2,0.00000E-1, 220.00,   0.00,   0.00,  0.00000,  0.00000,  0.00000,  0.00000,1,1,   0.00,   1,1.0000,   0,1.0000,   0,1.0000,   0,1.0000
    39,    40,'1 ',1.84000E-2,6.05000E-2,0.00000E-1, 220.00,   0.00,   0.00,  0.00000,  0.00000,  0.00000,  0.00000,1,1,   0.00,   1,1.0000,   0,1.0000,   0,1.0000,   0,1.0000
    40,    41,'1 ',1.45000E-2,4.87000E-2,0.00000E-1, 220.00,   0.00,   0.00,  0.00000,  0.00000,  0.00000,  0.00000,1,1,   0.00,   1,1.0000,   0,1.0000,   0,1.0000,   0,1.0000
    40,    42,'1 ',5.55000E-2,1.83000E-1,0.00000E-1, 440.00,   0.00,   0.00,  0.00000,  0.00000,  0.00000,  0.00000,1,1,   0.00,   1,1.0000,   0,1.0000,   0,1.0000,   0,1.0000
    41,    42,'1 ',4.10000E-2,1.35000E-1,0.00000E-1, 220.00,   0.00,   0.00,  0.00000,  0.00000,  0.00000,  0.00000,1,1,   0.00,   1,1.0000,   0,1.0000,   0,1.0000,   0,1.0000
    42,    49,'1 ',7.15000E-2,3.23000E-1,0.00000E-1, 220.00,   0.00,   0.00,  0.00000,  0.00000,  0.00000,  0.00000,1,1,   0.00,   1,1.0000,   0,1.0000,   0,1.0000,   0,1.0000
    42,    49,'2 ',7.15000E-2,3.23000E-1,0.00000E-1, 220.00,   0.00,   0.00,  0.00000,  0.00000,  0.00000,  0.00000,1,1,   0.00,   1,1.0000,   0,1.0000,   0,1.0000,   0,1.0000
    43,    44,'1 ',6.08000E-2,2.45400E-1,0.00000E-1, 220.00,   0.00,   0.00,  0.00000,  0.00000,  0.00000,  0.00000,1,1,   0.00,   1,1.0000,   0,1.0000,   0,1.0000,   0,1.0000
    44,    45,'1 ',2.24000E-2,9.01000E-2,0.00000E-1, 220.00,   0.00,   0.00,  0.00000,  0.00000,  0.00000,  0.00000,1,1,   0.00,   1,1.0000,   0,1.0000,   0,1.0000,   0,1.0000
    45,    46,'1 ',4.00000E-2,1.35600E-1,0.00000E-1, 220.00,   0.00,   0.00,  0.00000,  0.00000,  0.00000,  0.00000,1,1,   0.00,   1,1.0000,   0,1.0000,   0,1.0000,   0,1.0000
    45,    49,'1 ',6.84000E-2,1.86000E-1,0.00000E-1, 220.00,   0.00,   0.00,  0.00000,  0.00000,  0.00000,  0.00000,1,1,   0.00,   1,1.0000,   0,1.0000,   0,1.0000,   0,1.0000
    46,    47,'1 ',3.80000E-2,1.27000E-1,0.00000E-1, 660.00,   0.00,   0.00,  0.00000,  0.00000,  0.00000,  0.00000,1,1,   0.00,   1,1.0000,   0,1.0000,   0,1.0000,   0,1.0000
    46,    48,'1 ',6.01000E-2,1.89000E-1,0.00000E-1, 440.00,   0.00,   0.00,  0.00000,  0.00000,  0.00000,  0.00000,1,1,   0.00,   1,1.0000,   0,1.0000,   0,1.0000,   0,1.0000
    47,    49,'1 ',1.91000E-2,6.25000E-2,0.00000E-1, 220.00,   0.00,   0.00,  0.00000,  0.00000,  0.00000,  0.00000,1,1,   0.00,   1,1.0000,   0,1.0000,   0,1.0000,   0,1.0000
    47,    69,'1 ',8.44000E-2,2.77800E-1,0.00000E-1, 220.00,   0.00,   0.00,  0.00000,  0.00000,  0.00000,  0.00000,1,1,   0.00,   1,1.0000,   0,1.0000,   0,1.0000,   0,1.0000
    48,    49,'1 ',1.79000E-2,5.05000E-2,0.00000E-1, 220.00,   0.00,   0.00,  0.00000,  0.00000,  0.00000,  0.00000,1,1,   0.00,   1,1.0000,   0,1.0000,   0,1.0000,   0,1.0000
    49,    50,'1 ',2.67000E-2,7.52000E-2,0.00000E-1, 220.00,   0.00,   0.00,  0.00000,  0.00000,  0.00000,  0.00000,1,1,   0.00,   1,1.0000,   0,1.0000,   0,1.0000,   0,1.0000
    49,    51,'1 ',4.86000E-2,1.37000E-1,0.00000E-1, 220.00,   0.00,   0.00,  0.00000,  0.00000,  0.00000,  0.00000,1,1,   0.00,   1,1.0000,   0,1.0000,   0,1.0000,   0,1.0000
    49,    54,'1 ',7.30000E-2,2.89000E-1,0.00000E-1, 220.00,   0.00,   0.00,  0.00000,  0.00000,  0.00000,  0.00000,1,1,   0.00,   1,1.0000,   0,1.0000,   0,1.0000,   0,1.0000
    49,    54,'2 ',8.69000E-2,2.91000E-1,0.00000E-1, 220.00,   0.00,   0.00,  0.00000,  0.00000,  0.00000,  0.00000,1,1,   0.00,   1,1.0000,   0,1.0000,   0,1.0000,   0,1.0000
    49,    66,'1 ',1.80000E-2,9.19000E-2,0.00000E-1, 220.00,   0.00,   0.00,  0.00000,  0.00000,  0.00000,  0.00000,1,1,   0.00,   1,1.0000,   0,1.0000,   0,1.0000,   0,1.0000
    49,    66,'2 ',1.80000E-2,9.19000E-2,0.00000E-1, 220.00,   0.00,   0.00,  0.00000,  0.00000,  0.00000,  0.00000,1,1,   0.00,   1,1.0000,   0,1.0000,   0,1.0000,   0,1.0000
    49,    69,'1 ',9.85000E-2,3.24000E-1,0.00000E-1, 220.00,   0.00,   0.00,  0.00000,  0.00000,  0.00000,  0.00000,1,1,   0.00,   1,1.0000,   0,1.0000,   0,1.0000,   0,1.0000
    50,    57,'1 ',4.74000E-2,1.34000E-1,0.00000E-1, 220.00,   0.00,   0.00,  0.00000,  0.00000,  0.00000,  0.00000,1,1,   0.00,   1,1.0000,   0,1.0000,   0,1.0000,   0,1.0000
    51,    52,'1 ',2.03000E-2,5.88000E-2,0.00000E-1, 220.00,   0.00,   0.00,  0.00000,  0.00000,  0.00000,  0.00000,1,1,   0.00,   1,1.0000,   0,1.0000,   0,1.0000,   0,1.0000
    51,    58,'1 ',2.55000E-2,7.19000E-2,0.00000E-1, 220.00,   0.00,   0.00,  0.00000,  0.00000,  0.00000,  0.00000,1,1,   0.00,   1,1.0000,   0,1.0000,   0,1.0000,   0,1.0000
    52,    53,'1 ',4.05000E-2,1.63500E-1,0.00000E-1, 220.00,   0.00,   0.00,  0.00000,  0.00000,  0.00000,  0.00000,1,1,   0.00,   1,1.0000,   0,1.0000,   0,1.0000,   0,1.0000
    53,    54,'1 ',2.63000E-2,1.22000E-1,0.00000E-1, 220.00,   0.00,   0.00,  0.00000,  0.00000,  0.00000,  0.00000,1,1,   0.00,   1,1.0000,   0,1.0000,   0,1.0000,   0,1.0000
    54,    55,'1 ',1.69000E-2,7.07000E-2,0.00000E-1, 220.00,   0.00,   0.00,  0.00000,  0.00000,  0.00000,  0.00000,1,1,   0.00,   1,1.0000,   0,1.0000,   0,1.0000,   0,1.0000
    54,    56,'1 ',2.75000E-3,9.55000E-3,0.00000E-1, 220.00,   0.00,   0.00,  0.00000,  0.00000,  0.00000,  0.00000,1,1,   0.00,   1,1.0000,   0,1.0000,   0,1.0000,   0,1.0000
    54,    59,'1 ',5.03000E-2,2.29300E-1,0.00000E-1, 440.00,   0.00,   0.00,  0.00000,  0.00000,  0.00000,  0.00000,1,1,   0.00,   1,1.0000,   0,1.0000,   0,1.0000,   0,1.0000
    55,    56,'1 ',4.88000E-3,1.51000E-2,0.00000E-1, 220.00,   0.00,   0.00,  0.00000,  0.00000,  0.00000,  0.00000,1,1,   0.00,   1,1.0000,   0,1.0000,   0,1.0000,   0,1.0000
    55,    59,'1 ',4.73900E-2,2.15800E-1,0.00000E-1, 220.00,   0.00,   0.00,  0.00000,  0.00000,  0.00000,  0.00000,1,1,   0.00,   1,1.0000,   0,1.0000,   0,1.0000,   0,1.0000
    56,    57,'1 ',3.43000E-2,9.66000E-2,0.00000E-1, 220.00,   0.00,   0.00,  0.00000,  0.00000,  0.00000,  0.00000,1,1,   0.00,   1,1.0000,   0,1.0000,   0,1.0000,   0,1.0000
    56,    58,'1 ',3.43000E-2,9.66000E-2,0.00000E-1, 220.00,   0.00,   0.00,  0.00000,  0.00000,  0.00000,  0.00000,1,1,   0.00,   1,1.0000,   0,1.0000,   0,1.0000,   0,1.0000
    56,    59,'1 ',8.25000E-2,2.51000E-1,0.00000E-1, 440.00,   0.00,   0.00,  0.00000,  0.00000,  0.00000,  0.00000,1,1,   0.00,   1,1.0000,   0,1.0000,   0,1.0000,   0,1.0000
    56,    59,'2 ',8.03000E-2,2.39000E-1,0.00000E-1, 220.00,   0.00,   0.00,  0.00000,  0.00000,  0.00000,  0.00000,1,1,   0.00,   1,1.0000,   0,1.0000,   0,1.0000,   0,1.0000
    59,    60,'1 ',3.17000E-2,1.45000E-1,0.00000E-1, 220.00,   0.00,   0.00,  0.00000,  0.00000,  0.00000,  0.00000,1,1,   0.00,   1,1.0000,   0,1.0000,   0,1.0000,   0,1.0000
    59,    61,'1 ',3.28000E-2,1.50000E-1,0.00000E-1, 220.00,   0.00,   0.00,  0.00000,  0.00000,  0.00000,  0.00000,1,1,   0.00,   1,1.0000,   0,1.0000,   0,1.0000,   0,1.0000
    63,    59,'1 ',1.00000E-7,3.86000E-2,0.00000E-1, 220.00,   0.00,   0.00,  0.00000,  0.00000,  0.00000,  0.00000,1,1,   0.00,   1,1.0000,   0,1.0000,   0,1.0000,   0,1.0000
    60,    61,'1 ',2.64000E-3,1.35000E-2,0.00000E-1, 220.00,   0.00,   0.00,  0.00000,  0.00000,  0.00000,  0.00000,1,1,   0.00,   1,1.0000,   0,1.0000,   0,1.0000,   0,1.0000
    60,    62,'1 ',1.23000E-2,5.61000E-2,0.00000E-1, 220.00,   0.00,   0.00,  0.00000,  0.00000,  0.00000,  0.00000,1,1,   0.00,   1,1.0000,   0,1.0000,   0,1.0000,   0,1.0000
    61,    62,'1 ',8.24000E-3,3.76000E-2,0.00000E-1, 220.00,   0.00,   0.00,  0.00000,  0.00000,  0.00000,  0.00000,1,1,   0.00,   1,1.0000,   0,1.0000,   0,1.0000,   0,1.0000
    64,    61,'1 ',1.00000E-7,2.68000E-2,0.00000E-1, 220.00,   0.00,   0.00,  0.00000,  0.00000,  0.00000,  0.00000,1,1,   0.00,   1,1.0000,   0,1.0000,   0,1.0000,   0,1.0000
    62,    66,'1 ',4.82000E-2,2.18000E-1,0.00000E-1, 220.00,   0.00,   0.00,  0.00000,  0.00000,  0.00000,  0.00000,1,1,   0.00,   1,1.0000,   0,1.0000,   0,1.0000,   0,1.0000
    62,    67,'1 ',2.58000E-2,1.17000E-1,0.00000E-1, 220.00,   0.00,   0.00,  0.00000,  0.00000,  0.00000,  0.00000,1,1,   0.00,   1,1.0000,   0,1.0000,   0,1.0000,   0,1.0000
    63,    64,'1 ',1.72000E-3,2.00000E-2,0.00000E-1, 220.00,   0.00,   0.00,  0.00000,  0.00000,  0.00000,  0.00000,1,1,   0.00,   1,1.0000,   0,1.0000,   0,1.0000,   0,1.0000
    64,    65,'1 ',2.69000E-3,3.02000E-2,0.00000E-1, 220.00,   0.00,   0.00,  0.00000,  0.00000,  0.00000,  0.00000,1,1,   0.00,   1,1.0000,   0,1.0000,   0,1.0000,   0,1.0000
    65,    66,'1 ',1.00000E-7,3.70000E-2,0.00000E-1, 220.00,   0.00,   0.00,  0.00000,  0.00000,  0.00000,  0.00000,1,1,   0.00,   1,1.0000,   0,1.0000,   0,1.0000,   0,1.0000
    65,    68,'1 ',1.38000E-3,1.60000E-2,0.00000E-1, 220.00,   0.00,   0.00,  0.00000,  0.00000,  0.00000,  0.00000,1,1,   0.00,   1,1.0000,   0,1.0000,   0,1.0000,   0,1.0000
    66,    67,'1 ',2.24000E-2,1.01500E-1,0.00000E-1, 440.00,   0.00,   0.00,  0.00000,  0.00000,  0.00000,  0.00000,1,1,   0.00,   1,1.0000,   0,1.0000,   0,1.0000,   0,1.0000
    68,    69,'1 ',1.00000E-7,3.70000E-2,0.00000E-1, 220.00,   0.00,   0.00,  0.00000,  0.00000,  0.00000,  0.00000,1,1,   0.00,   1,1.0000,   0,1.0000,   0,1.0000,   0,1.0000
    68,    81,'1 ',1.75000E-3,2.02000E-2,0.00000E-1, 220.00,   0.00,   0.00,  0.00000,  0.00000,  0.00000,  0.00000,1,1,   0.00,   1,1.0000,   0,1.0000,   0,1.0000,   0,1.0000
    68,   116,'1 ',3.40000E-4,4.05000E-3,0.00000E-1, 220.00,   0.00,   0.00,  0.00000,  0.00000,  0.00000,  0.00000,1,1,   0.00,   1,1.0000,   0,1.0000,   0,1.0000,   0,1.0000
    69,    70,'1 ',3.00000E-2,1.27000E-1,0.00000E-1, 440.00,   0.00,   0.00,  0.00000,  0.00000,  0.00000,  0.00000,1,1,   0.00,   1,1.0000,   0,1.0000,   0,1.0000,   0,1.0000
    69,    75,'1 ',4.05000E-2,1.22000E-1,0.00000E-1, 220.00,   0.00,   0.00,  0.00000,  0.00000,  0.00000,  0.00000,1,1,   0.00,   1,1.0000,   0,1.0000,   0,1.0000,   0,1.0000
    69,    77,'1 ',3.09000E-2,1.01000E-1,0.00000E-1, 440.00,   0.00,   0.00,  0.00000,  0.00000,  0.00000,  0.00000,1,1,   0.00,   1,1.0000,   0,1.0000,   0,1.0000,   0,1.0000
    70,    71,'1 ',8.82000E-3,3.55000E-2,0.00000E-1, 220.00,   0.00,   0.00,  0.00000,  0.00000,  0.00000,  0.00000,1,1,   0.00,   1,1.0000,   0,1.0000,   0,1.0000,   0,1.0000
    70,    74,'1 ',4.01000E-2,1.32300E-1,0.00000E-1, 220.00,   0.00,   0.00,  0.00000,  0.00000,  0.00000,  0.00000,1,1,   0.00,   1,1.0000,   0,1.0000,   0,1.0000,   0,1.0000
    70,    75,'1 ',4.28000E-2,1.41000E-1,0.00000E-1, 440.00,   0.00,   0.00,  0.00000,  0.00000,  0.00000,  0.00000,1,1,   0.00,   1,1.0000,   0,1.0000,   0,1.0000,   0,1.0000
    71,    72,'1 ',4.46000E-2,1.80000E-1,0.00000E-1, 220.00,   0.00,   0.00,  0.00000,  0.00000,  0.00000,  0.00000,1,1,   0.00,   1,1.0000,   0,1.0000,   0,1.0000,   0,1.0000
    71,    73,'1 ',8.66000E-3,4.54000E-2,0.00000E-1, 220.00,   0.00,   0.00,  0.00000,  0.00000,  0.00000,  0.00000,1,1,   0.00,   1,1.0000,   0,1.0000,   0,1.0000,   0,1.0000
    74,    75,'1 ',1.23000E-2,4.06000E-2,0.00000E-1, 440.00,   0.00,   0.00,  0.00000,  0.00000,  0.00000,  0.00000,1,1,   0.00,   1,1.0000,   0,1.0000,   0,1.0000,   0,1.0000
    75,    77,'1 ',6.01000E-2,1.99900E-1,0.00000E-1, 220.00,   0.00,   0.00,  0.00000,  0.00000,  0.00000,  0.00000,1,1,   0.00,   1,1.0000,   0,1.0000,   0,1.0000,   0,1.0000
    75,   118,'1 ',1.45000E-2,4.81000E-2,0.00000E-1, 220.00,   0.00,   0.00,  0.00000,  0.00000,  0.00000,  0.00000,1,1,   0.00,   1,1.0000,   0,1.0000,   0,1.0000,   0,1.0000
    76,    77,'1 ',4.44000E-2,1.48000E-1,0.00000E-1, 440.00,   0.00,   0.00,  0.00000,  0.00000,  0.00000,  0.00000,1,1,   0.00,   1,1.0000,   0,1.0000,   0,1.0000,   0,1.0000
...